dynawo/sources/Modeler/DataInterface/PowSyblIIDM/test/resources/line.xiidm
<?xml version="1.0" encoding="UTF-8"?>
<iidm:network xmlns:iidm="http://www.powsybl.org/schema/iidm/1_5" id="test" caseDate="2022-01-01T00:00:00.000+01:00" forecastDistance="0" sourceFormat="test">
    <iidm:substation id="S1">
        <iidm:voltageLevel id="VL1" nominalV="380.0" topologyKind="BUS_BREAKER">
            <iidm:busBreakerTopology>
                <iidm:bus id="VL1_BUS1" v="380.0" angle="0.0"/>
            </iidm:busBreakerTopology>
        </iidm:voltageLevel>
        <iidm:voltageLevel id="VL2" nominalV="225.0" topologyKind="BUS_BREAKER">
            <iidm:busBreakerTopology>
                <iidm:bus id="VL2_BUS1"/>
            </iidm:busBreakerTopology>
        </iidm:voltageLevel>
    </iidm:substation>
    <iidm:substation id="S2">
        <iidm:voltageLevel id="VL3" nominalV="360.0" topologyKind="BUS_BREAKER">
            <iidm:busBreakerTopology>
                <iidm:bus id="VL3_BUS1" v="360.0" angle="0.0"/>
            </iidm:busBreakerTopology>
        </iidm:voltageLevel>
        <iidm:voltageLevel id="VL4" nominalV="225.0" topologyKind="BUS_BREAKER">
            <iidm:busBreakerTopology>
                <iidm:bus id="VL4_BUS1"/>
            </iidm:busBreakerTopology>
        </iidm:voltageLevel>
    </iidm:substation>
    <iidm:line id="VL1_VL3" r="3.0" x="33.33" g1="1.0" b1="0.2" g2="2.0" b2="0.4"
        voltageLevelId1="VL1" bus1="VL1_BUS1" connectableBus1="VL1_BUS1"
        voltageLevelId2="VL3" bus2="VL3_BUS1" connectableBus2="VL3_BUS1">
        <iidm:currentLimits1 permanentLimit="1000.0">
            <iidm:temporaryLimit name="lim1" acceptableDuration="1" fictitious="false" value="1.0"/>
        </iidm:currentLimits1>
        <iidm:currentLimits2 permanentLimit="1000.0">
            <iidm:temporaryLimit name="lim2" acceptableDuration="2" fictitious="false" value="2.0"/>
        </iidm:currentLimits2>
    </iidm:line>
    <iidm:line id="VL1_VL3_Bad" r="0.0" x="0.0" g1="0.0" b1="0.0" g2="0.0" b2="0.0"
        voltageLevelId1="VL1" connectableBus1="VL1_BUS1"
        voltageLevelId2="VL3" connectableBus2="VL3_BUS1"/>
</iidm:network>
